Version 4
SHEET 1 880 680
WIRE -288 -416 -480 -416
WIRE -48 -416 -160 -416
WIRE 288 -416 272 -416
WIRE -288 -352 -288 -416
WIRE -208 -352 -288 -352
WIRE -80 -336 -160 -336
WIRE -320 -288 -480 -288
WIRE -320 -272 -320 -288
WIRE -208 -272 -320 -272
WIRE -48 -256 -160 -256
WIRE 288 -256 288 -416
WIRE 288 -256 112 -256
WIRE -80 -208 -80 -336
WIRE -80 -208 -160 -208
WIRE 288 -160 288 -256
WIRE 336 -160 288 -160
WIRE 432 -160 400 -160
WIRE -208 -144 -480 -144
WIRE 0 -128 -160 -128
WIRE 288 -128 288 -160
WIRE 288 -128 80 -128
WIRE 0 -64 -160 -64
WIRE 288 -64 288 -128
WIRE 288 -64 80 -64
WIRE 320 -64 288 -64
WIRE 432 -64 432 -160
WIRE 432 -64 400 -64
WIRE 0 -16 0 -64
WIRE 80 -16 80 -64
WIRE -208 0 -400 0
WIRE -400 16 -400 0
WIRE 288 32 288 -64
WIRE 320 32 288 32
WIRE 432 32 432 -64
WIRE 432 32 400 32
WIRE 288 144 288 32
WIRE 320 144 288 144
WIRE 432 160 432 32
WIRE 432 160 384 160
WIRE 320 176 48 176
WIRE 432 176 432 160
FLAG -576 -224 0
FLAG 352 192 0
FLAG 352 128 5V
FLAG -576 -304 5V
FLAG 432 256 0
FLAG 48 96 5V
FLAG 48 256 0
FLAG -80 -336 5V
FLAG -160 16 0
FLAG -208 -400 0
FLAG -208 -320 0
FLAG -208 -192 0
FLAG -208 -48 0
FLAG -400 96 0
FLAG -480 -336 0
FLAG -480 -208 0
FLAG -480 -64 0
SYMBOL OpAmps\\UniversalOpamp2 352 160 R0
SYMATTR InstName U1
SYMBOL voltage -576 -320 R0
WINDOW 123 0 0 Left 0
WINDOW 39 0 0 Left 0
SYMATTR InstName V1
SYMATTR Value 5
SYMBOL res 416 160 R0
SYMATTR InstName R1
SYMATTR Value 100k
SYMBOL res 416 16 R90
WINDOW 0 0 56 VBottom 2
WINDOW 3 32 56 VTop 2
SYMATTR InstName R2
SYMATTR Value 10k
SYMATTR SpiceLine tol=1
SYMBOL res 64 192 R180
WINDOW 0 36 76 Left 2
WINDOW 3 36 40 Left 2
SYMATTR InstName R3
SYMATTR Value 10k
SYMATTR SpiceLine tol=1
SYMBOL res 64 272 R180
WINDOW 0 36 76 Left 2
WINDOW 3 36 40 Left 2
SYMATTR InstName R4
SYMATTR Value 10k
SYMATTR SpiceLine tol=1
SYMBOL res 416 -80 R90
WINDOW 0 0 56 VBottom 2
WINDOW 3 32 56 VTop 2
SYMATTR InstName R5
SYMATTR Value 10k
SYMATTR SpiceLine tol=1
SYMBOL sw -160 -224 R0
SYMATTR InstName S2
SYMBOL sw -160 -352 R0
SYMATTR InstName S3
SYMBOL sw -160 -432 R0
SYMATTR InstName S4
SYMBOL sw -160 -80 R0
SYMATTR InstName S1
SYMBOL res 96 -80 R90
WINDOW 0 0 56 VBottom 2
WINDOW 3 32 56 VTop 2
SYMATTR InstName R6
SYMATTR Value 10k
SYMATTR SpiceLine tol=1
SYMBOL res 96 -32 R90
WINDOW 0 0 56 VBottom 2
WINDOW 3 32 56 VTop 2
SYMATTR InstName R7
SYMATTR Value 10k
SYMATTR SpiceLine tol=1
SYMBOL res 96 -144 R90
WINDOW 0 0 56 VBottom 2
WINDOW 3 32 56 VTop 2
SYMATTR InstName R8
SYMATTR Value 10k
SYMATTR SpiceLine tol=1
SYMBOL res 48 -272 R90
WINDOW 0 0 56 VBottom 2
WINDOW 3 32 56 VTop 2
SYMATTR InstName R9
SYMATTR Value 10k
SYMATTR SpiceLine tol=1
SYMBOL res 128 -272 R90
WINDOW 0 0 56 VBottom 2
WINDOW 3 32 56 VTop 2
SYMATTR InstName R10
SYMATTR Value 10k
SYMATTR SpiceLine tol=1
SYMBOL res 48 -432 R90
WINDOW 0 0 56 VBottom 2
WINDOW 3 32 56 VTop 2
SYMATTR InstName R11
SYMATTR Value 10k
SYMATTR SpiceLine tol=1
SYMBOL res 128 -432 R90
WINDOW 0 0 56 VBottom 2
WINDOW 3 32 56 VTop 2
SYMATTR InstName R12
SYMATTR Value 10k
SYMATTR SpiceLine tol=1
SYMBOL res 208 -432 R90
WINDOW 0 0 56 VBottom 2
WINDOW 3 32 56 VTop 2
SYMATTR InstName R13
SYMATTR Value 10k
SYMATTR SpiceLine tol=1
SYMBOL res 288 -432 R90
WINDOW 0 0 56 VBottom 2
WINDOW 3 32 56 VTop 2
SYMATTR InstName R14
SYMATTR Value 10k
SYMATTR SpiceLine tol=1
SYMBOL voltage -400 0 R0
WINDOW 123 0 0 Left 0
WINDOW 39 0 0 Left 0
SYMATTR InstName V2
SYMATTR Value {modulo(floor((x+8)/8),2)}
SYMBOL voltage -480 -160 R0
WINDOW 123 0 0 Left 0
WINDOW 39 0 0 Left 0
SYMATTR InstName V3
SYMATTR Value {modulo(floor(x/4),2)}
SYMBOL voltage -480 -304 R0
WINDOW 123 0 0 Left 0
WINDOW 39 0 0 Left 0
SYMATTR InstName V4
SYMATTR Value {modulo(floor(x/2),2)}
SYMBOL voltage -480 -432 R0
WINDOW 3 24 44 Left 2
WINDOW 123 0 0 Left 0
WINDOW 39 0 0 Left 0
SYMATTR InstName V5
SYMATTR Value {modulo(floor(x),2)}
SYMBOL cap 400 -176 R90
WINDOW 0 0 32 VBottom 2
WINDOW 3 32 32 VTop 2
SYMATTR InstName C1
TEXT -352 328 Left 2 !.op
TEXT -352 392 Left 2 !.model SW SW(Ron=1 Roff=1Meg Vt=.5 Vh=-.4)
TEXT -360 464 Left 2 !.step param x 0 15 0.1
TEXT -344 536 Left 2 !.func modulo(x,y) {x-(floor(x/y)*y)}
